data_image0
_chemical_formula_structural       C6N8
_chemical_formula_sum              "C6 N8"
_cell_length_a       7.13454233
_cell_length_b       7.1345423299999995
_cell_length_c       20.0
_cell_angle_alpha    90.0
_cell_angle_beta     90.0
_cell_angle_gamma    119.99999999999999

_space_group_name_H-M_alt    "P 1"
_space_group_IT_number       1

loop_
  _space_group_symop_operation_xyz
  'x, y, z'

loop_
  _atom_site_type_symbol
  _atom_site_label
  _atom_site_symmetry_multiplicity
  _atom_site_fract_x
  _atom_site_fract_y
  _atom_site_fract_z
  _atom_site_occupancy
  C   C1        1.0  0.09519199999999996  0.5475959999999999  0.5  1.0000
  C   C2        1.0  0.45240399999999986  0.9048079999999997  0.5  1.0000
  C   C3        1.0  0.4524039999999999  0.5475959999999999  0.5  1.0000
  C   C4        1.0  0.7793750000000003  0.55875  0.5  1.0000
  C   C5        1.0  0.7793750000000003  0.22062499999999993  0.5  1.0000
  C   C6        1.0  0.44125  0.22062499999999993  0.5  1.0000
  N   N1        1.0  0.33333333  0.66666667  0.5  1.0000
  N   N2        1.0  0.668429  0.005272999999999999  0.5  1.0000
  N   N3        1.0  0.336844  0.331571  0.5  1.0000
  N   N4        1.0  0.994727  0.663156  0.5  1.0000
  N   N5        1.0  0.66666667  0.3333333299999999  0.5  1.0000
  N   N6        1.0  0.9947269999999999  0.331571  0.5  1.0000
  N   N7        1.0  0.336844  0.005272999999999999  0.5  1.0000
  N   N8        1.0  0.668429  0.663156  0.5  1.0000
