data_image0
_chemical_formula_structural       C6N8
_chemical_formula_sum              "C6 N8"
_cell_length_a       7.135
_cell_length_b       7.135
_cell_length_c       15.0
_cell_angle_alpha    90.0
_cell_angle_beta     90.0
_cell_angle_gamma    120.00000000000001

_space_group_name_H-M_alt    "P 1"
_space_group_IT_number       1

loop_
  _space_group_symop_operation_xyz
  'x, y, z'

loop_
  _atom_site_type_symbol
  _atom_site_label
  _atom_site_symmetry_multiplicity
  _atom_site_fract_x
  _atom_site_fract_y
  _atom_site_fract_z
  _atom_site_occupancy
  C   C1        1.0  0.09520000000000002  0.5476  0.5  1.0000
  C   C2        1.0  0.4524  0.9048000000000002  0.5  1.0000
  C   C3        1.0  0.45239999999999997  0.5476  0.5  1.0000
  C   C4        1.0  0.7794  0.5587  0.5  1.0000
  C   C5        1.0  0.7794  0.2206  0.5  1.0000
  C   C6        1.0  0.4411999999999999  0.2206  0.5  1.0000
  N   N1        1.0  0.3333  0.6667000000000001  0.5  1.0000
  N   N2        1.0  0.6683999999999999  0.005300000000000001  0.5  1.0000
  N   N3        1.0  0.33679999999999993  0.3316  0.5  1.0000
  N   N4        1.0  0.9946999999999998  0.6632  0.5  1.0000
  N   N5        1.0  0.6666999999999998  0.3333  0.5  1.0000
  N   N6        1.0  0.9947  0.3316  0.5  1.0000
  N   N7        1.0  0.33679999999999993  0.005300000000000001  0.5  1.0000
  N   N8        1.0  0.6683999999999999  0.6632  0.5  1.0000
