data_image0
_chemical_formula_structural       C6N8
_chemical_formula_sum              "C6 N8"
_cell_length_a       6.933913905445099
_cell_length_b       6.9340116644631316
_cell_length_c       15.0
_cell_angle_alpha    90.0
_cell_angle_beta     90.0
_cell_angle_gamma    119.98221549069717

_space_group_name_H-M_alt    "P 1"
_space_group_IT_number       1

loop_
  _space_group_symop_operation_xyz
  'x, y, z'

loop_
  _atom_site_type_symbol
  _atom_site_label
  _atom_site_symmetry_multiplicity
  _atom_site_fract_x
  _atom_site_fract_y
  _atom_site_fract_z
  _atom_site_occupancy
  C   C1        1.0  0.0968870880337631  0.5483854058820905  0.5000000064951883  1.0000
  C   C2        1.0  0.4516060261118162  0.9031075334093117  0.5000000064554673  1.0000
  C   C3        1.0  0.4514515813267771  0.5485440570448069  0.5000000067443369  1.0000
  C   C4        1.0  0.7806649210829064  0.5615679893265365  0.5000000005696107  1.0000
  C   C5        1.0  0.7809576216951918  0.21903599296290882  0.49999999777125387  1.0000
  C   C6        1.0  0.43842346517502895  0.21932836825660526  0.5000000008758367  1.0000
  N   N1        1.0  0.3332859431595584  0.6667080284325935  0.5000000093741617  1.0000
  N   N2        1.0  0.6710490358825532  0.0011104577376547784  0.500000002304219  1.0000
  N   N3        1.0  0.330037727773375  0.32903302815779  0.500000006847443  1.0000
  N   N4        1.0  0.998763770938635  0.6698085334510739  0.5000000079928046  1.0000
  N   N5        1.0  0.6666719245831793  0.33331982636750934  0.4999999904711501  1.0000
  N   N6        1.0  0.9988827643094147  0.32894175544556203  0.5000000032655685  1.0000
  N   N7        1.0  0.330180863225411  0.0012294187476696297  0.5000000090793465  1.0000
  N   N8        1.0  0.6709632986454906  0.6699566402276531  0.500000006898451  1.0000
